Version 4
SHEET 1 880 712
WIRE -32 -32 -96 -32
WIRE 112 -32 48 -32
WIRE 144 -32 112 -32
WIRE 384 -32 224 -32
WIRE -96 0 -96 -32
WIRE 224 112 224 80
WIRE -720 128 -720 48
WIRE -32 128 -96 128
WIRE 112 128 112 -32
WIRE 112 128 48 128
WIRE 176 128 112 128
WIRE 384 160 384 -32
WIRE 384 160 288 160
WIRE 464 160 384 160
WIRE 176 192 112 192
WIRE 384 192 384 160
WIRE -720 240 -720 208
WIRE -624 240 -720 240
WIRE 224 240 224 208
WIRE -720 272 -720 240
WIRE -336 288 -432 288
WIRE -208 288 -272 288
WIRE -96 288 -96 128
WIRE -96 288 -208 288
WIRE -32 288 -96 288
WIRE 112 288 112 192
WIRE 112 288 48 288
WIRE 144 288 112 288
WIRE 288 288 208 288
WIRE 384 288 384 272
WIRE 384 288 288 288
WIRE 384 320 384 288
WIRE -432 336 -432 288
WIRE -208 336 -208 288
WIRE 112 336 112 288
WIRE -720 416 -720 352
WIRE 384 432 384 384
WIRE 112 448 112 416
WIRE -432 496 -432 416
WIRE -208 496 -208 416
WIRE -96 496 -96 288
WIRE -32 496 -96 496
WIRE 288 496 288 288
WIRE 288 496 32 496
FLAG -624 240 0
FLAG -720 416 V-
FLAG -720 48 V+
FLAG 224 80 V+
FLAG 224 240 V-
FLAG -96 0 0
FLAG 112 448 0
FLAG 384 432 0
FLAG 464 160 Vo
IOPIN 464 160 Out
FLAG -432 496 0
FLAG -208 496 0
SYMBOL TCLib\\TL082 368 112 R0
SYMATTR InstName U1
SYMBOL res 64 -48 R90
WINDOW 0 0 56 VBottom 2
WINDOW 3 39 59 VTop 2
SYMATTR InstName RA1
SYMATTR Value 46250
SYMBOL voltage -720 112 R0
SYMATTR InstName V1
SYMATTR Value 15
SYMBOL voltage -720 256 R0
SYMATTR InstName V2
SYMATTR Value 15
SYMBOL res 240 -48 R90
WINDOW 0 0 56 VBottom 2
WINDOW 3 32 56 VTop 2
SYMATTR InstName RB
SYMATTR Value 10000
SYMBOL res 64 112 R90
WINDOW 0 0 56 VBottom 2
WINDOW 3 32 56 VTop 2
SYMATTR InstName RA2
SYMATTR Value 191388
SYMBOL cap 32 480 R90
WINDOW 0 0 32 VBottom 2
WINDOW 3 32 32 VTop 2
SYMATTR InstName C22
SYMATTR Value 4.641n
SYMBOL cap 208 272 R90
WINDOW 0 0 32 VBottom 2
WINDOW 3 32 32 VTop 2
SYMATTR InstName C3
SYMATTR Value 5.623n
SYMBOL res 368 176 R0
SYMATTR InstName R1
SYMATTR Value 1006
SYMBOL cap 368 320 R0
WINDOW 3 36 55 Left 2
SYMATTR InstName C21
SYMATTR Value 1n
SYMBOL voltage -432 320 R0
SYMATTR InstName V3
SYMATTR Value AC 1.
SYMBOL res 64 272 R90
WINDOW 0 0 56 VBottom 2
WINDOW 3 32 56 VTop 2
SYMATTR InstName R42
SYMATTR Value 32601
SYMBOL res 128 432 R180
WINDOW 0 36 76 Left 2
WINDOW 3 36 40 Left 2
SYMATTR InstName R41
SYMATTR Value 4591
SYMBOL cap -272 272 R90
WINDOW 0 0 32 VBottom 2
WINDOW 3 32 32 VTop 2
SYMATTR InstName C1
SYMATTR Value 1n
SYMBOL res -192 432 R180
WINDOW 0 36 76 Left 2
WINDOW 3 36 40 Left 2
SYMATTR InstName R2
SYMATTR Value 5883.41
TEXT -512 40 Left 2 !.ac dec 100 10 100000
