Version 4
SHEET 1 1892 752
WIRE 1248 -48 1184 -48
WIRE 1392 -48 1328 -48
WIRE 1424 -48 1392 -48
WIRE 1664 -48 1504 -48
WIRE -176 -32 -224 -32
WIRE -32 -32 -96 -32
WIRE 112 -32 48 -32
WIRE 144 -32 112 -32
WIRE 384 -32 224 -32
WIRE 1184 -16 1184 -48
WIRE -224 32 -224 -32
WIRE 240 112 240 80
WIRE 1248 112 1184 112
WIRE 1392 112 1392 -48
WIRE 1392 112 1328 112
WIRE 1488 112 1392 112
WIRE -896 128 -896 48
WIRE -32 128 -96 128
WIRE 112 128 112 -32
WIRE 112 128 48 128
WIRE 192 128 112 128
WIRE -144 144 -304 144
WIRE 1664 144 1664 -48
WIRE 1664 144 1600 144
WIRE 1744 144 1664 144
WIRE -96 160 -96 128
WIRE 384 160 384 -32
WIRE 384 160 304 160
WIRE 448 160 384 160
WIRE 560 160 448 160
WIRE 624 160 560 160
WIRE 384 176 384 160
WIRE 560 176 560 160
WIRE 1488 176 1392 176
WIRE 1664 176 1664 144
WIRE 192 192 112 192
WIRE 448 224 448 160
WIRE 448 224 432 224
WIRE 1120 224 976 224
WIRE -896 240 -896 208
WIRE -800 240 -896 240
WIRE -224 240 -224 208
WIRE 240 240 240 208
WIRE -304 256 -304 144
WIRE -272 256 -304 256
WIRE -896 272 -896 240
WIRE 768 272 672 272
WIRE 896 272 832 272
WIRE 960 272 896 272
WIRE 976 272 976 224
WIRE 992 272 976 272
WIRE 1184 272 1184 112
WIRE 1184 272 1152 272
WIRE 1248 272 1184 272
WIRE 1392 272 1392 176
WIRE 1392 272 1328 272
WIRE 1424 272 1392 272
WIRE 1568 272 1488 272
WIRE 1664 272 1664 256
WIRE 1664 272 1568 272
WIRE -144 288 -144 144
WIRE -144 288 -160 288
WIRE -96 288 -96 240
WIRE -96 288 -144 288
WIRE -80 288 -96 288
WIRE 16 288 0 288
WIRE 112 288 112 192
WIRE 112 288 96 288
WIRE 144 288 112 288
WIRE 160 288 144 288
WIRE 240 288 224 288
WIRE 288 288 240 288
WIRE 384 288 384 256
WIRE 384 288 288 288
WIRE 560 288 560 256
WIRE 560 288 384 288
WIRE 1120 304 1120 224
WIRE 1120 304 1104 304
WIRE 1152 304 1152 272
WIRE 1152 304 1120 304
WIRE 1664 304 1664 272
WIRE -464 320 -512 320
WIRE -336 320 -400 320
WIRE -272 320 -336 320
WIRE 384 320 384 288
WIRE 672 320 672 272
WIRE 896 320 896 272
WIRE 1392 320 1392 272
WIRE 112 336 112 288
WIRE 112 336 -16 336
WIRE 960 336 960 272
WIRE 992 336 960 336
WIRE -16 352 -16 336
WIRE 112 352 112 336
WIRE -336 368 -336 320
WIRE -224 384 -224 336
WIRE 144 384 144 288
WIRE 160 384 144 384
WIRE 240 384 240 288
WIRE 240 384 224 384
WIRE -896 416 -896 352
WIRE 1664 416 1664 368
WIRE 384 432 384 384
WIRE 1392 432 1392 400
WIRE -16 448 -16 432
WIRE 112 448 112 432
WIRE 672 480 672 400
WIRE 896 480 896 400
WIRE 1184 480 1184 272
WIRE 1248 480 1184 480
WIRE 1568 480 1568 272
WIRE 1568 480 1312 480
WIRE -336 496 -336 448
WIRE -96 496 -96 288
WIRE 160 496 -96 496
WIRE 288 496 288 288
WIRE 288 496 224 496
WIRE -896 544 -896 496
WIRE -896 672 -896 624
FLAG -800 240 0
FLAG -896 416 V-
FLAG -896 48 V+
FLAG -224 32 0
FLAG 112 448 0
FLAG 384 432 0
FLAG 624 160 Vo
IOPIN 624 160 Out
FLAG -896 672 0
FLAG -336 496 0
FLAG 1184 -16 0
FLAG 1392 432 0
FLAG 1664 416 0
FLAG 1744 144 VoIdeal
IOPIN 1744 144 Out
FLAG 672 480 0
FLAG 896 480 0
FLAG 240 80 V+
FLAG 240 240 V-
FLAG -224 384 V-
FLAG -224 208 V+
FLAG -16 448 0
FLAG -896 496 Vi
IOPIN -896 496 Out
FLAG -512 320 Vi
IOPIN -512 320 In
SYMBOL res 64 -48 R90
WINDOW 0 0 56 VBottom 2
WINDOW 3 50 45 VTop 2
SYMATTR InstName RA1_
SYMATTR Value {mc(3k3, tolR)}
SYMBOL voltage -896 112 R0
SYMATTR InstName V1
SYMATTR Value 15
SYMBOL voltage -896 256 R0
SYMATTR InstName V2
SYMATTR Value 15
SYMBOL res 240 -48 R90
WINDOW 0 0 56 VBottom 2
WINDOW 3 33 35 VTop 2
SYMATTR InstName RB
SYMATTR Value {mc(1k, tolR)}
SYMBOL res 64 112 R90
WINDOW 0 0 56 VBottom 2
WINDOW 3 22 6 VTop 2
SYMATTR InstName RA2_
SYMATTR Value {mc(56k, tolR)}
SYMBOL cap 224 480 R90
WINDOW 0 0 32 VBottom 2
WINDOW 3 32 32 VTop 2
SYMATTR InstName C22
SYMATTR Value {mc(12n, 0.05)}
SYMBOL cap 224 272 R90
WINDOW 0 0 32 VBottom 2
WINDOW 3 32 32 VTop 2
SYMATTR InstName C3_
SYMATTR Value {mc(12n, 0.05)}
SYMBOL cap 368 320 R0
WINDOW 3 36 55 Left 2
SYMATTR Value {mc(1n, 0.2)}
SYMATTR InstName C21
SYMBOL voltage -896 528 R0
SYMATTR InstName Vi
SYMATTR Value AC 1.
SYMBOL res 128 448 R180
WINDOW 0 36 76 Left 2
WINDOW 3 -67 12 Left 2
SYMATTR InstName R41_
SYMATTR Value {mc(2k7, tolR)}
SYMBOL cap -400 304 R90
WINDOW 0 0 32 VBottom 2
WINDOW 3 32 32 VTop 2
SYMATTR InstName C
SYMATTR Value {mc(33p,0.01)}
SYMBOL res -320 464 R180
WINDOW 0 36 76 Left 2
WINDOW 3 36 40 Left 2
SYMATTR InstName R
SYMATTR Value {mc(220k,tolR)}
SYMBOL res 1344 -64 R90
WINDOW 0 0 56 VBottom 2
WINDOW 3 39 59 VTop 2
SYMATTR InstName RA3
SYMATTR Value 46250
SYMBOL res 1520 -64 R90
WINDOW 0 0 56 VBottom 2
WINDOW 3 32 56 VTop 2
SYMATTR InstName RB1
SYMATTR Value 10000
SYMBOL res 1344 96 R90
WINDOW 0 0 56 VBottom 2
WINDOW 3 32 56 VTop 2
SYMATTR InstName RA4
SYMATTR Value 191388
SYMBOL cap 1312 464 R90
WINDOW 0 0 32 VBottom 2
WINDOW 3 32 32 VTop 2
SYMATTR InstName C2
SYMATTR Value 4.641n
SYMBOL cap 1488 256 R90
WINDOW 0 0 32 VBottom 2
WINDOW 3 32 32 VTop 2
SYMATTR InstName C4
SYMATTR Value 5.623n
SYMBOL res 1648 160 R0
SYMATTR InstName R3
SYMATTR Value 1006
SYMBOL cap 1648 304 R0
WINDOW 3 36 55 Left 2
SYMATTR Value 1n
SYMATTR InstName C5
SYMBOL voltage 672 304 R0
SYMATTR InstName V4
SYMATTR Value AC 1.
SYMBOL res 1344 256 R90
WINDOW 0 0 56 VBottom 2
WINDOW 3 32 56 VTop 2
SYMATTR InstName R4
SYMATTR Value 32601
SYMBOL res 1408 416 R180
WINDOW 0 36 76 Left 2
WINDOW 3 36 40 Left 2
SYMATTR InstName R5
SYMATTR Value 4591
SYMBOL cap 832 256 R90
WINDOW 0 0 32 VBottom 2
WINDOW 3 32 32 VTop 2
SYMATTR InstName C6
SYMATTR Value 1n
SYMBOL res 912 416 R180
WINDOW 0 36 76 Left 2
WINDOW 3 36 40 Left 2
SYMATTR InstName R6
SYMATTR Value 5883.41
SYMBOL TCLib\\OA_Ideal 1680 96 R0
SYMATTR InstName U2
SYMBOL TCLib\\OA_Ideal 1184 256 R0
SYMATTR InstName U3
SYMBOL TCLib\\TL082 -80 240 R0
WINDOW 3 -127 116 Left 2
SYMATTR InstName U4
SYMBOL TCLib\\TL082 384 112 R0
SYMATTR InstName U1
SYMBOL res -80 -48 R90
WINDOW 0 0 56 VBottom 2
WINDOW 3 25 68 VTop 2
SYMATTR InstName RA1
SYMATTR Value {mc(10k, tolR)}
SYMBOL res -112 144 R0
WINDOW 3 31 69 Left 2
SYMATTR Value {mc(150, tolR)}
SYMATTR InstName RA2
SYMBOL res 0 336 M0
WINDOW 3 21 87 Left 2
SYMATTR Value {mc(33k, tolR)}
SYMATTR InstName R41
SYMBOL res 112 272 R90
WINDOW 0 -7 75 VBottom 2
WINDOW 3 -21 23 VTop 2
SYMATTR InstName R42_
SYMATTR Value {mc(33k, tolR)}
SYMBOL cap 224 368 R90
WINDOW 0 0 32 VBottom 2
WINDOW 3 30 -18 VTop 2
SYMATTR InstName C3
SYMATTR Value {mc(100p, 0.1)}
SYMBOL res 16 272 R90
WINDOW 0 -6 46 VBottom 2
WINDOW 3 23 82 VTop 2
SYMATTR InstName R42
SYMATTR Value {mc(1k5, tolR)}
SYMBOL TCLib\\pot 368 160 R0
SYMATTR InstName R1
SYMATTR Value R=1K
SYMATTR Value2 cur=.822
SYMBOL res 544 160 R0
SYMATTR InstName R1_
SYMATTR Value 680
TEXT -696 632 Left 2 !.ac dec 100 1000 100k
TEXT -8 696 Left 2 !.param tolR = 0.05
TEXT -8 736 Left 2 !.step param run 1 100 1
