Version 4
SHEET 1 1892 752
WIRE -176 -32 -224 -32
WIRE -32 -32 -96 -32
WIRE 112 -32 48 -32
WIRE 144 -32 112 -32
WIRE 384 -32 224 -32
WIRE -224 32 -224 -32
WIRE -1120 96 -1120 48
WIRE 240 112 240 80
WIRE -32 128 -96 128
WIRE 112 128 112 -32
WIRE 112 128 48 128
WIRE 192 128 112 128
WIRE -144 144 -304 144
WIRE -96 160 -96 128
WIRE 384 160 384 -32
WIRE 384 160 304 160
WIRE 448 160 384 160
WIRE 560 160 448 160
WIRE 624 160 560 160
WIRE 384 176 384 160
WIRE 560 176 560 160
WIRE 192 192 112 192
WIRE -1120 208 -1120 176
WIRE -1008 208 -1120 208
WIRE 448 224 448 160
WIRE 448 224 432 224
WIRE -1120 240 -1120 208
WIRE -224 240 -224 208
WIRE 240 240 240 208
WIRE -304 256 -304 144
WIRE -272 256 -304 256
WIRE -144 288 -144 144
WIRE -144 288 -160 288
WIRE -96 288 -96 240
WIRE -96 288 -144 288
WIRE -80 288 -96 288
WIRE 16 288 0 288
WIRE 112 288 112 192
WIRE 112 288 96 288
WIRE 144 288 112 288
WIRE 160 288 144 288
WIRE 240 288 224 288
WIRE 288 288 240 288
WIRE 384 288 384 256
WIRE 384 288 288 288
WIRE 560 288 560 256
WIRE 560 288 384 288
WIRE -464 320 -512 320
WIRE -336 320 -400 320
WIRE -272 320 -336 320
WIRE 384 320 384 288
WIRE 112 336 112 288
WIRE 112 336 -16 336
WIRE -16 352 -16 336
WIRE 112 352 112 336
WIRE -1120 368 -1120 320
WIRE -336 368 -336 320
WIRE -224 384 -224 336
WIRE 144 384 144 288
WIRE 160 384 144 384
WIRE 240 384 240 288
WIRE 240 384 224 384
WIRE -704 416 -704 368
WIRE 384 432 384 384
WIRE -16 448 -16 432
WIRE 112 448 112 432
WIRE -336 496 -336 448
WIRE -96 496 -96 288
WIRE 160 496 -96 496
WIRE 288 496 288 288
WIRE 288 496 224 496
WIRE -704 528 -704 496
FLAG -224 32 0
FLAG 112 448 0
FLAG 384 432 0
FLAG 624 160 Vo
IOPIN 624 160 Out
FLAG -336 496 0
FLAG 240 80 V+
FLAG 240 240 V-
FLAG -224 384 V-
FLAG -224 208 V+
FLAG -16 448 0
FLAG -512 320 Vi
IOPIN -512 320 In
FLAG -704 528 0
FLAG -704 368 Vi
IOPIN -704 368 Out
FLAG -1008 208 0
FLAG -1120 48 V+
FLAG -1120 368 V-
SYMBOL res 64 -48 R90
WINDOW 0 0 56 VBottom 2
WINDOW 3 36 60 VTop 2
SYMATTR InstName RA1_
SYMATTR Value 3k3
SYMBOL res 240 -48 R90
WINDOW 0 0 56 VBottom 2
WINDOW 3 36 60 VTop 2
SYMATTR InstName RB
SYMATTR Value 1k
SYMBOL res 64 112 R90
WINDOW 0 0 56 VBottom 2
WINDOW 3 32 35 VTop 2
SYMATTR InstName RA2_
SYMATTR Value 56k
SYMBOL cap 224 480 R90
WINDOW 0 0 32 VBottom 2
WINDOW 3 32 32 VTop 2
SYMATTR InstName C22
SYMATTR Value 12n
SYMBOL cap 224 272 R90
WINDOW 0 0 32 VBottom 2
WINDOW 3 32 32 VTop 2
SYMATTR InstName C3_
SYMATTR Value 12n
SYMBOL cap 368 320 R0
WINDOW 3 36 55 Left 2
SYMATTR Value 1n
SYMATTR InstName C21
SYMBOL res 128 448 R180
WINDOW 0 36 76 Left 2
WINDOW 3 41 34 Left 2
SYMATTR InstName R41_
SYMATTR Value 2k7
SYMBOL cap -400 304 R90
WINDOW 0 0 32 VBottom 2
WINDOW 3 32 32 VTop 2
SYMATTR InstName C
SYMATTR Value 33p
SYMBOL res -320 464 R180
WINDOW 0 36 76 Left 2
WINDOW 3 36 40 Left 2
SYMATTR InstName R
SYMATTR Value 220k
SYMBOL TCLib\\TL082 -80 240 R0
WINDOW 3 -127 116 Left 2
SYMATTR InstName U4
SYMBOL TCLib\\TL082 384 112 R0
SYMATTR InstName U1
SYMBOL res -80 -48 R90
WINDOW 0 0 56 VBottom 2
WINDOW 3 34 63 VTop 2
SYMATTR InstName RA1
SYMATTR Value 10k
SYMBOL res -112 144 R0
WINDOW 3 31 69 Left 2
SYMATTR Value 150
SYMATTR InstName RA2
SYMBOL res 0 336 M0
WINDOW 3 21 87 Left 2
SYMATTR Value 33k
SYMATTR InstName R41
SYMBOL res 112 272 R90
WINDOW 0 -4 60 VBottom 2
WINDOW 3 25 85 VTop 2
SYMATTR InstName R42_
SYMATTR Value 33k
SYMBOL cap 224 368 R90
WINDOW 0 0 32 VBottom 2
WINDOW 3 19 -8 VTop 2
SYMATTR InstName C3
SYMATTR Value 100p
SYMBOL res 16 272 R90
WINDOW 0 2 61 VBottom 2
WINDOW 3 28 68 VTop 2
SYMATTR InstName R42
SYMATTR Value 1k5
SYMBOL TCLib\\pot 368 160 R0
SYMATTR InstName R1
SYMATTR Value R=1K
SYMATTR Value2 cur=.822
SYMBOL res 544 160 R0
SYMATTR InstName R1_
SYMATTR Value 680
SYMBOL voltage -704 400 R0
WINDOW 123 0 0 Left 0
WINDOW 39 0 0 Left 0
SYMATTR InstName V1
SYMATTR Value SINE(0 5 100000)
SYMBOL voltage -1120 224 R0
SYMATTR InstName V2
SYMATTR Value 15
SYMBOL voltage -1120 80 R0
SYMATTR InstName V3
SYMATTR Value 15
TEXT -696 176 Left 2 !.tran 0.0001
