Version 4
SHEET 1 880 680
WIRE -656 -32 -656 -112
WIRE -16 -32 -96 -32
WIRE 112 -32 64 -32
WIRE 208 -32 112 -32
WIRE 384 -32 288 -32
WIRE -96 0 -96 -32
WIRE -656 80 -656 48
WIRE -560 80 -656 80
WIRE -656 112 -656 80
WIRE 224 112 224 80
WIRE -32 128 -96 128
WIRE 112 128 112 -32
WIRE 112 128 48 128
WIRE 176 128 112 128
WIRE 384 160 384 -32
WIRE 384 160 288 160
WIRE 464 160 384 160
WIRE 384 176 384 160
WIRE 176 192 112 192
WIRE 224 240 224 208
WIRE -656 256 -656 192
WIRE -96 288 -96 128
WIRE -96 288 -144 288
WIRE -32 288 -96 288
WIRE 112 288 112 192
WIRE 112 288 48 288
WIRE 144 288 112 288
WIRE 288 288 208 288
WIRE 384 288 384 256
WIRE 384 288 288 288
WIRE 112 336 112 288
WIRE 384 336 384 288
WIRE 384 432 384 400
WIRE 112 448 112 416
WIRE -96 496 -96 288
WIRE -16 496 -96 496
WIRE 288 496 288 288
WIRE 288 496 48 496
FLAG -560 80 0
FLAG -656 256 V+
FLAG -656 -112 V-
FLAG 224 80 V+
FLAG 224 240 V-
FLAG -96 0 0
FLAG 112 448 0
FLAG 384 432 0
FLAG 464 160 Vo
IOPIN 464 160 Out
FLAG -144 288 Vi
IOPIN -144 288 In
SYMBOL TCLib\\TL082 368 112 R0
SYMATTR InstName U1
SYMBOL res 80 -48 R90
WINDOW 0 0 56 VBottom 2
WINDOW 3 32 56 VTop 2
SYMATTR InstName R1
SYMBOL voltage -656 -48 R0
SYMATTR InstName V1
SYMBOL voltage -656 96 R0
SYMATTR InstName V2
SYMBOL res 304 -48 R90
WINDOW 0 0 56 VBottom 2
WINDOW 3 32 56 VTop 2
SYMATTR InstName R2
SYMBOL res 64 112 R90
WINDOW 0 0 56 VBottom 2
WINDOW 3 32 56 VTop 2
SYMATTR InstName R3
SYMBOL res 64 272 R90
WINDOW 0 0 56 VBottom 2
WINDOW 3 32 56 VTop 2
SYMATTR InstName R4
SYMBOL res 96 320 R0
SYMATTR InstName R5
SYMBOL cap 48 480 R90
WINDOW 0 0 32 VBottom 2
WINDOW 3 32 32 VTop 2
SYMATTR InstName C1
SYMBOL cap 208 272 R90
WINDOW 0 0 32 VBottom 2
WINDOW 3 32 32 VTop 2
SYMATTR InstName C2
SYMBOL res 368 160 R0
SYMATTR InstName R6
SYMBOL cap 368 336 R0
SYMATTR InstName C3
