Version 4
SHEET 1 1892 712
WIRE 1248 -48 1184 -48
WIRE 1392 -48 1328 -48
WIRE 1424 -48 1392 -48
WIRE 1664 -48 1504 -48
WIRE -32 -32 -96 -32
WIRE 112 -32 48 -32
WIRE 144 -32 112 -32
WIRE 384 -32 224 -32
WIRE 1184 -16 1184 -48
WIRE -96 0 -96 -32
WIRE -128 112 -288 112
WIRE 240 112 240 80
WIRE 1248 112 1184 112
WIRE 1392 112 1392 -48
WIRE 1392 112 1328 112
WIRE 1488 112 1392 112
WIRE -720 128 -720 48
WIRE -32 128 -96 128
WIRE 112 128 112 -32
WIRE 112 128 48 128
WIRE 192 128 112 128
WIRE 1664 144 1664 -48
WIRE 1664 144 1600 144
WIRE 1744 144 1664 144
WIRE 384 160 384 -32
WIRE 384 160 304 160
WIRE 464 160 384 160
WIRE 1488 176 1392 176
WIRE 1664 176 1664 144
WIRE 192 192 112 192
WIRE 384 192 384 160
WIRE -208 208 -208 176
WIRE -288 224 -288 112
WIRE -256 224 -288 224
WIRE 1120 224 976 224
WIRE -720 240 -720 208
WIRE -624 240 -720 240
WIRE 240 240 240 208
WIRE -128 256 -128 112
WIRE -128 256 -144 256
WIRE -720 272 -720 240
WIRE 768 272 672 272
WIRE 896 272 832 272
WIRE 960 272 896 272
WIRE 976 272 976 224
WIRE 992 272 976 272
WIRE 1184 272 1184 112
WIRE 1184 272 1152 272
WIRE 1248 272 1184 272
WIRE 1392 272 1392 176
WIRE 1392 272 1328 272
WIRE 1424 272 1392 272
WIRE 1568 272 1488 272
WIRE 1664 272 1664 256
WIRE 1664 272 1568 272
WIRE -464 288 -560 288
WIRE -336 288 -400 288
WIRE -256 288 -336 288
WIRE -128 288 -128 256
WIRE -96 288 -96 128
WIRE -96 288 -128 288
WIRE -32 288 -96 288
WIRE 112 288 112 192
WIRE 112 288 48 288
WIRE 144 288 112 288
WIRE 288 288 208 288
WIRE 384 288 384 272
WIRE 384 288 288 288
WIRE 1120 304 1120 224
WIRE 1120 304 1104 304
WIRE 1152 304 1152 272
WIRE 1152 304 1120 304
WIRE 1664 304 1664 272
WIRE 384 320 384 288
WIRE 672 320 672 272
WIRE 896 320 896 272
WIRE 1392 320 1392 272
WIRE -560 336 -560 288
WIRE -336 336 -336 288
WIRE -208 336 -208 304
WIRE 112 336 112 288
WIRE 960 336 960 272
WIRE 992 336 960 336
WIRE -720 416 -720 352
WIRE 1664 416 1664 368
WIRE 384 432 384 384
WIRE 1392 432 1392 400
WIRE 112 448 112 416
WIRE 672 480 672 400
WIRE 896 480 896 400
WIRE 1184 480 1184 272
WIRE 1248 480 1184 480
WIRE 1568 480 1568 272
WIRE 1568 480 1312 480
WIRE -560 496 -560 416
WIRE -336 496 -336 416
WIRE -96 496 -96 288
WIRE -32 496 -96 496
WIRE 288 496 288 288
WIRE 288 496 32 496
FLAG -624 240 0
FLAG -720 416 V-
FLAG -720 48 V+
FLAG -96 0 0
FLAG 112 448 0
FLAG 384 432 0
FLAG 464 160 Vo
IOPIN 464 160 Out
FLAG -560 496 0
FLAG -336 496 0
FLAG 1184 -16 0
FLAG 1392 432 0
FLAG 1664 416 0
FLAG 1744 144 VoIdeal
IOPIN 1744 144 Out
FLAG 672 480 0
FLAG 896 480 0
FLAG 240 80 V+
FLAG 240 240 V-
FLAG -208 336 V-
FLAG -208 176 V+
SYMBOL res 64 -48 R90
WINDOW 0 0 56 VBottom 2
WINDOW 3 39 59 VTop 2
SYMATTR InstName RA1
SYMATTR Value 46250
SYMBOL voltage -720 112 R0
SYMATTR InstName V1
SYMATTR Value 15
SYMBOL voltage -720 256 R0
SYMATTR InstName V2
SYMATTR Value 15
SYMBOL res 240 -48 R90
WINDOW 0 0 56 VBottom 2
WINDOW 3 32 56 VTop 2
SYMATTR InstName RB
SYMATTR Value 10000
SYMBOL res 64 112 R90
WINDOW 0 0 56 VBottom 2
WINDOW 3 32 56 VTop 2
SYMATTR InstName RA2
SYMATTR Value 191388
SYMBOL cap 32 480 R90
WINDOW 0 0 32 VBottom 2
WINDOW 3 32 32 VTop 2
SYMATTR InstName C22
SYMATTR Value 4.641n
SYMBOL cap 208 272 R90
WINDOW 0 0 32 VBottom 2
WINDOW 3 32 32 VTop 2
SYMATTR InstName C3
SYMATTR Value 5.623n
SYMBOL res 368 176 R0
SYMATTR InstName R1
SYMATTR Value 1006
SYMBOL cap 368 320 R0
WINDOW 3 36 55 Left 2
SYMATTR Value 1n
SYMATTR InstName C21
SYMBOL voltage -560 320 R0
SYMATTR InstName V3
SYMATTR Value AC 1.
SYMBOL res 64 272 R90
WINDOW 0 0 56 VBottom 2
WINDOW 3 32 56 VTop 2
SYMATTR InstName R42
SYMATTR Value 32601
SYMBOL res 128 432 R180
WINDOW 0 36 76 Left 2
WINDOW 3 36 40 Left 2
SYMATTR InstName R41
SYMATTR Value 4591
SYMBOL cap -400 272 R90
WINDOW 0 0 32 VBottom 2
WINDOW 3 32 32 VTop 2
SYMATTR InstName C
SYMATTR Value 1µ
SYMBOL res -320 432 R180
WINDOW 0 36 76 Left 2
WINDOW 3 36 40 Left 2
SYMATTR InstName R
SYMATTR Value 5883.41
SYMBOL res 1344 -64 R90
WINDOW 0 0 56 VBottom 2
WINDOW 3 39 59 VTop 2
SYMATTR InstName RA3
SYMATTR Value 46250
SYMBOL res 1520 -64 R90
WINDOW 0 0 56 VBottom 2
WINDOW 3 32 56 VTop 2
SYMATTR InstName RB1
SYMATTR Value 10000
SYMBOL res 1344 96 R90
WINDOW 0 0 56 VBottom 2
WINDOW 3 32 56 VTop 2
SYMATTR InstName RA4
SYMATTR Value 191388
SYMBOL cap 1312 464 R90
WINDOW 0 0 32 VBottom 2
WINDOW 3 32 32 VTop 2
SYMATTR InstName C2
SYMATTR Value 4.641n
SYMBOL cap 1488 256 R90
WINDOW 0 0 32 VBottom 2
WINDOW 3 32 32 VTop 2
SYMATTR InstName C4
SYMATTR Value 5.623n
SYMBOL res 1648 160 R0
SYMATTR InstName R3
SYMATTR Value 1006
SYMBOL cap 1648 304 R0
WINDOW 3 36 55 Left 2
SYMATTR Value 1n
SYMATTR InstName C5
SYMBOL voltage 672 304 R0
SYMATTR InstName V4
SYMATTR Value AC 1.
SYMBOL res 1344 256 R90
WINDOW 0 0 56 VBottom 2
WINDOW 3 32 56 VTop 2
SYMATTR InstName R4
SYMATTR Value 32601
SYMBOL res 1408 416 R180
WINDOW 0 36 76 Left 2
WINDOW 3 36 40 Left 2
SYMATTR InstName R5
SYMATTR Value 4591
SYMBOL cap 832 256 R90
WINDOW 0 0 32 VBottom 2
WINDOW 3 32 32 VTop 2
SYMATTR InstName C6
SYMATTR Value 1n
SYMBOL res 912 416 R180
WINDOW 0 36 76 Left 2
WINDOW 3 36 40 Left 2
SYMATTR InstName R6
SYMATTR Value 5883.41
SYMBOL TCLib\\OA_Ideal 1680 96 R0
SYMATTR InstName U2
SYMBOL TCLib\\OA_Ideal 1184 256 R0
SYMATTR InstName U3
SYMBOL TCLib\\TL082 -64 208 R0
WINDOW 3 -132 117 Left 2
SYMATTR InstName U4
SYMBOL TCLib\\TL082 384 112 R0
SYMATTR InstName U1
TEXT -512 40 Left 2 !.ac dec 100 10 100000
